960.00     304.90     19.06
0.0     304.9   19.06   -2.287149582   6.283915231
253.0   305.2   17.91   -3.037015266   17.22389754
329.0   305.3   17.58   -2.858367309   16.2107271
557.0   305.5   17.22   0.000000000    18.004
757.0   305.6   16.91   4.050044108    17.5425528
862.0   306.8   15.4    6.15775597     16.91821673
1069.0  309.2   12.77   10.32669388    14.7479968
1472.0  310.7   8.3     14.18593789    11.90337367
1777.0  311.8   5.89    16.85489321    11.80187913
1942.0  312.4   4.86    17.69763787    12.39197308
2081.0  312.4   5.42    18.54038253    12.98206704
2386.0  312.4   6.85    19.80449952    13.86720797
2475.0  312.4   7.32    20.22587185    14.16225495
2721.0  312.9   4.54    21.06861651    14.75234891
2876.0  313.0   3.86    22.60224406    15.24534807
3070.0  314.4   1.21    24.86547628    15.5376125
3301.0  315.8   1.08    27.1745197     15.68915122
3605.0  317.6   0.92    30.2929072     17.48954562
3807.0  318.7   0.82    30.19888458    19.61130884
3910.0  318.9   0.83    29.91743545    20.94833545
4520.0  319.5   0.83    32.0242971     22.42357034
4718.0  319.7   0.84    30.76018011    21.53842941
5026.0  323.5   0.23    29.07469079    20.35824149
5423.0  324.6   0.19    26.96782913    18.8830066
5434.0  324.6   0.19    26.12508447    18.29291265
5739.0  325.7   0.21    26.12508447    18.29291265
6102.0  327.1   0.22    27.38920146    19.17805358
7123.0  328.3   0.12    30.76018011    21.53842941
7263.0  328.5   0.12    30.33880778    21.24338243
8787.0  331.1   0.17    36.2380204     25.37404012
9092.0  331.4   0.18    34.13115875    23.89880523
9160.0  331.5   0.19    34.13115875    23.89880523
9183.0  331.6   0.001   34.13115875    23.89880523
9701.0  334.7   0.001   44.75569191    20.86982203
9844.0  335.5   0.001   44.75569191    20.86982203
10311.0 338.3   0.001   43.02066097    15.65814894
10413.0 338.9   0.001   41.08714812    14.95441191
10921.0 340.6   0.001   38.25918242    10.25143882
11530.0 342.5   0.001   41.49225604    19.34806417
11863.0 343.4   0.001   40.24667242    10.78398109
12140.0 347.8   0.001   39.51365199    6.967243715
12290.0 350.1   0.001   38.50048142    6.788596441
13664.0 359.1   0.001   27.06917994    9.852318437
13663.0 359.1   0.001   28.81860494    7.721863005
14273.0 362.5   0.001   27.03989719    12.60885081
14391.0 363.1   0.001   29.83712794    13.91321469
14811.0 371.3   0.001   27.97230744    13.04363877
14883.0 372.7   0.001   27.97230744    13.04363877
15797.0 391.1   0.001   27.97230744    13.04363877
16103.0 397.4   0.001   27.97230744    13.04363877
16481.0 399.9   0.001   27.97230744    13.04363877
16637.0 410.0   0.001   27.97230744    13.04363877
17281.0 413.0   0.001   27.97230744    13.04363877
17321.0 415.4   0.001   27.97230744    13.04363877
17527.0 427.8   0.001   27.97230744    13.04363877
18236.0 441.4   0.001   27.97230744    13.04363877
18253.0 441.8   0.001   27.97230744    13.04363877
18517.0 445.6   0.001   27.97230744    13.04363877
18845.0 457.1   0.001   27.97230744    13.04363877
19981.0 498.8   0.001   27.97230744    13.04363877
20323.0 504.7   0.001   27.97230744    13.04363877
22954.0 573.6   0.001   27.97230744    13.04363877
23563.0 595.5   0.001   27.97230744    13.04363877
24663.0 636.0   0.001   27.97230744    13.04363877
26193.0 679.0   0.001   27.97230744    13.04363877
26846.0 706.8   0.001   27.97230744    13.04363877
27739.0 734.2   0.001   27.97230744    13.04363877